14
Energy: -377.728513052156
C	0.934943017533	0.127523142041	0.290442026527	
N	2.31341443817	0.135013397021	0.401306823071	
O	0.272590574211	0.046773777809	1.352862185833	
N	-2.087650176756	0.272969333193	-1.148404366441	
H	-2.443661255411	-0.553725352231	-1.637048506632	
H	2.711251280164	-0.183600895525	1.276724344242	
H	-2.421710721491	0.278788467877	-0.145220873807	
H	2.852717645468	-0.048677803763	-0.436320236634	
O	0.471914704997	0.233419161707	-0.88521888057	
H	-0.967614479955	0.25380382854	-1.076859291355	
H	-2.414311420525	1.112134993753	-1.636296719649	
O	-2.321114595004	0.256825005819	1.558905898511	
H	-1.316959773316	0.158918350246	1.531765565855	
H	-2.486161123733	1.143523676884	1.912418171351	
14
Energy: -377.643399328497
C	0.213985038536	-0.358386928169	0.235731381634	
N	1.278086274945	-0.304446870961	-0.644094174961	
O	0.264499799253	-0.851645713857	1.340166325745	
N	-1.101442056834	-0.508430504196	-0.50054286052	
H	-1.30293919962	-1.507822944518	-0.625024286117	
H	2.167934683288	-0.221766582471	-0.158415933826	
H	-1.865608899557	-0.023372912858	0.14847509945	
H	1.208218314434	0.356823426812	-1.412592796307	
O	-0.168648663236	1.58235828698	0.587735165487	
H	-0.123722294918	2.141006115336	-0.20230644434	
H	-1.11879068982	-0.061070549314	-1.422600951547	
O	-2.454456949469	0.979934917529	1.086789951014	
H	-2.479478025121	0.591707037681	1.974116879698	
H	-1.419989217526	1.418802305359	0.951618784897	
14
Energy: -377.709010134149
C	0.055814276789	-0.673955696766	-0.040546790378	
N	1.211657358507	0.009550355361	-0.317132449538	
O	-0.248676744089	-0.974087849447	1.116144151947	
N	-0.735886583702	-0.964898838702	-1.099246969972	
H	-1.650882900434	-1.354364633915	-0.906711982532	
H	1.891732061908	0.038546531326	0.435496685779	
H	-2.936211439876	0.564996472862	1.306837762822	
H	1.594275375364	0.019055870217	-1.25748129735	
O	-0.699154355491	2.422691519275	0.018523602364	
H	0.09522176284	1.875701087801	-0.093729061827	
H	-0.569958505304	-0.585053351822	-2.023346466761	
O	-2.152991042324	0.832168978978	1.810897161877	
H	-1.524892964814	0.078394272123	1.7188952663	
H	-1.232398185041	1.944944366084	0.690456527569	
