14
Energy: -377.711081883228
C	0.097092030376	-0.120637423534	1.186167161934	
N	0.44535071331	-0.197227550696	-2.217433127504	
O	0.992612329667	-0.354001606558	1.977771742142	
N	-0.147333829811	-1.249389790449	0.161787467616	
H	0.162174766397	-0.883039421703	-0.868092611001	
H	1.397678871134	0.157473266678	-2.328076598191	
H	0.372729148255	-2.094310360603	0.415007463348	
H	-0.205718443335	0.606418190299	-2.196456383037	
O	-1.557467778496	1.758849861283	-1.392564967715	
H	0.231722444828	-0.770690444708	-3.036103190839	
H	-2.377524268318	1.274591798933	-1.569059554915	
O	-0.653812488488	0.843581591399	1.006552877527	
H	-1.278311101181	1.462356430334	-0.491218170446	
H	-1.146708316381	-1.475017999254	0.111013694411	
14
Energy: -377.710925657023
C	0.09637507933	-0.12138502157	1.162340190356	
N	0.446091511566	-0.197268728877	-2.170759960789	
O	1.019506738279	-0.334818178759	1.931330797045	
N	-0.150575656504	-1.227355907508	0.144802506349	
H	0.195651344331	-0.822249677975	-0.955880272079	
H	1.397649053466	0.165184259136	-2.268354851269	
H	0.345144293691	-2.084590296743	0.402355005704	
H	-0.220911826616	0.598815769939	-2.164581910076	
O	-1.549398655498	1.69814882648	-1.39177198903	
H	0.250420978296	-0.793152792964	-2.979222242043	
H	-2.382160753074	1.234420280295	-1.563936859596	
O	-0.6708700369	0.842065223737	1.016470310992	
H	-1.291739253974	1.43005655691	-0.472013674603	
H	-1.152698738442	-1.428913770686	0.068518752379	
14
Energy: -377.717402390037
C	0.052429805058	-0.141681986065	1.186926564174	
N	0.448349499312	-0.159600132623	-2.233475365197	
O	0.973227337931	-0.279245753503	1.994349711702	
N	-0.189738042618	-1.237757136864	0.274436638899	
H	0.394042295974	-0.730647673316	-1.331283062853	
H	1.377944609458	0.257110464734	-2.346888476034	
H	0.214776751836	-2.112739040201	0.603289749102	
H	-0.297860716082	0.596940027783	-2.09555087713	
O	-1.44276060827	1.523765210124	-1.373144096916	
H	0.236625983755	-0.744622739516	-3.048032973929	
H	-2.33455558372	1.184303317828	-1.540423876959	
O	-0.691658594567	0.862580305882	1.018253125771	
H	-1.228333453109	1.295797649686	-0.407636628474	
H	-1.180005207012	-1.355245972535	0.05847537118	
