14
Energy: -377.719269999038
C	-1.338852311897	-0.457877801959	1.754619756925	
N	-0.032266647999	0.141476196022	1.751640053454	
O	-1.597035173307	-1.180819338367	0.744427963283	
N	-0.698363726596	-0.345318071459	-1.539809905454	
H	0.056340616017	-0.909443712964	-1.942102851277	
H	0.237898970044	0.4847556666	2.671512758036	
H	-1.458163083495	-0.273336028069	-2.223420810622	
H	0.688271191994	-0.468703718116	1.366664646147	
O	-2.086595754487	-0.190588563476	2.693941580028	
H	0.064956225498	1.48559274201	0.520537405856	
H	-0.338337802641	0.615919502681	-1.2916507332	
O	0.116099235762	1.986580474436	-0.340768439447	
H	-1.064186175649	-0.785985271775	-0.590653995208	
H	1.050524383996	2.217560622386	-0.454188354874	
14
Energy: -377.628611775594
C	-1.352897784618	-0.13724630942	0.747503431109	
N	-0.173550425633	0.202532193273	1.433003831739	
O	-0.969869660671	-1.997695486653	0.127817646115	
N	-1.171431109322	0.133665640006	-0.729347830846	
H	-0.835555825717	-0.909044910973	-0.895711095607	
H	-0.2819436054	0.062338444034	2.436032384956	
H	-2.079863787979	0.322159438187	-1.162978229453	
H	0.660448623013	-0.274834772194	1.095130392186	
O	-2.455480067441	-0.058530883942	1.240921620199	
H	0.470800314481	1.962818806528	0.524731512551	
H	-0.499636986184	0.912121956513	-0.909360798076	
O	0.56822496646	2.310578712807	-0.386480705245	
H	-0.203206563635	-2.365648262333	0.588424554199	
H	1.502244218466	2.180282818653	-0.611849790931	
14
Energy: -377.710333180533
C	-2.079562768938	0.669576520859	1.134690139899	
N	-1.039514017499	-0.076806625271	1.624227094248	
O	0.989130616133	-1.365284572014	-0.132886165449	
N	-1.908517592416	1.141153555332	-0.135925527841	
H	0.641746960715	-2.140262844764	-0.602434456342	
H	-1.231410608011	-0.573634504137	2.48597929925	
H	-2.592154794516	1.821432962099	-0.445087614062	
H	-0.337100272411	-0.488384571233	1.005975481188	
O	-3.089675363497	0.898762772394	1.79669621459	
H	1.265982104764	1.674835732522	-0.686931698337	
H	-0.983726734813	1.157002641822	-0.585036025226	
O	0.763508045173	1.096768663582	-1.280303120415	
H	1.808635078545	-1.654348660619	0.299069076008	
H	0.970941652616	0.1826863139	-0.980195774643	
